&share
 wrf_core = 'ARW',
 max_dom = 2,
 start_date = '2016-06-10_12:00:00','2016-06-10_12:00:00',
 end_date   = '2016-06-11_03:00:00','2016-06-11_03:00:00',
 interval_seconds = 10800,
 io_form_geogrid = 2,
 opt_output_from_geogrid_path = '/gscr3/xinz/lasso/WPS_workspace/20160610/' !shared by geogrid.exe and metgrid.exe
/

&geogrid
 parent_id         =   1,   1,
 parent_grid_ratio =   1,   3,
 i_parent_start    =   1,  74,
 j_parent_start    =   1,  74,
 e_we              =  151, 13,
 e_sn              =  151, 13,
 geog_data_res     = '2m','2m',
 dx = 9000,
 dy = 9000,
 map_proj = 'lambert',
 ref_lat   =  36.61,
 ref_lon   = -97.49,
 truelat1  =  30.0,
 truelat2  =  60.0,
 stand_lon = -97.49,
 geog_data_path = '/gscr3/xinz/wps_geog/'
 opt_geogrid_tbl_path = '/home/xinz/V36/WPS/geogrid/' !not using tbl from current direct since no aerosol data in wps_geog
/

&ungrib
 out_format = 'WPS',
 prefix = 'NARR',
/

&metgrid
 fg_name = 'NARR'
 io_form_metgrid = 2,
 opt_output_from_metgrid_path = '/gscr3/xinz/lasso/WPS_workspace/20160610/' 
 opt_metgrid_tbl_path = '/home/xinz/V36/WPS/metgrid/'
/
