1017.8 288.3 9.45
2.500000 288.300000 9.450000 3.010750 -8.986000
7.500000 288.300000 9.450000 3.032250 -8.958000
12.500000 288.300000 9.450000 3.053750 -8.930000
17.500000 288.300000 9.450000 3.075250 -8.902000
22.500000 288.300000 9.450000 3.096750 -8.874000
27.500000 288.300000 9.450000 3.118250 -8.846000
32.500000 288.300000 9.450000 3.139750 -8.818000
37.500000 288.300000 9.450000 3.161250 -8.790000
42.500000 288.300000 9.450000 3.182750 -8.762000
47.500000 288.300000 9.450000 3.204250 -8.734000
52.500000 288.300000 9.450000 3.225750 -8.706000
57.500000 288.300000 9.450000 3.247250 -8.678000
62.500000 288.300000 9.450000 3.268750 -8.650000
67.500000 288.300000 9.450000 3.290250 -8.622000
72.500000 288.300000 9.450000 3.311750 -8.594000
77.500000 288.300000 9.450000 3.333250 -8.566000
82.500000 288.300000 9.450000 3.354750 -8.538000
87.500000 288.300000 9.450000 3.376250 -8.510000
92.500000 288.300000 9.450000 3.397750 -8.482000
97.500000 288.300000 9.450000 3.419250 -8.454000
102.500000 288.300000 9.450000 3.440750 -8.426000
107.500000 288.300000 9.450000 3.462250 -8.398000
112.500000 288.300000 9.450000 3.483750 -8.370000
117.500000 288.300000 9.450000 3.505250 -8.342000
122.500000 288.300000 9.450000 3.526750 -8.314000
127.500000 288.300000 9.450000 3.548250 -8.286000
132.500000 288.300000 9.450000 3.569750 -8.258000
137.500000 288.300000 9.450000 3.591250 -8.230000
142.500000 288.300000 9.450000 3.612750 -8.202000
147.500000 288.300000 9.450000 3.634250 -8.174000
152.500000 288.300000 9.450000 3.655750 -8.146000
157.500000 288.300000 9.450000 3.677250 -8.118000
162.500000 288.300000 9.450000 3.698750 -8.090000
167.500000 288.300000 9.450000 3.720250 -8.062000
172.500000 288.300000 9.450000 3.741750 -8.034000
177.500000 288.300000 9.450000 3.763250 -8.006000
182.500000 288.300000 9.450000 3.784750 -7.978000
187.500000 288.300000 9.450000 3.806250 -7.950000
192.500000 288.300000 9.450000 3.827750 -7.922000
197.500000 288.300000 9.450000 3.849250 -7.894000
202.500000 288.300000 9.450000 3.870750 -7.866000
207.500000 288.300000 9.450000 3.892250 -7.838000
212.500000 288.300000 9.450000 3.913750 -7.810000
217.500000 288.300000 9.450000 3.935250 -7.782000
222.500000 288.300000 9.450000 3.956750 -7.754000
227.500000 288.300000 9.450000 3.978250 -7.726000
232.500000 288.300000 9.450000 3.999750 -7.698000
237.500000 288.300000 9.450000 4.021250 -7.670000
242.500000 288.300000 9.450000 4.042750 -7.642000
247.500000 288.300000 9.450000 4.064250 -7.614000
252.500000 288.300000 9.450000 4.085750 -7.586000
257.500000 288.300000 9.450000 4.107250 -7.558000
262.500000 288.300000 9.450000 4.128750 -7.530000
267.500000 288.300000 9.450000 4.150250 -7.502000
272.500000 288.300000 9.450000 4.171750 -7.474000
277.500000 288.300000 9.450000 4.193250 -7.446000
282.500000 288.300000 9.450000 4.214750 -7.418000
287.500000 288.300000 9.450000 4.236250 -7.390000
292.500000 288.300000 9.450000 4.257750 -7.362000
297.500000 288.300000 9.450000 4.279250 -7.334000
302.500000 288.300000 9.450000 4.300750 -7.306000
307.500000 288.300000 9.450000 4.322250 -7.278000
312.500000 288.300000 9.450000 4.343750 -7.250000
317.500000 288.300000 9.450000 4.365250 -7.222000
322.500000 288.300000 9.450000 4.386750 -7.194000
327.500000 288.300000 9.450000 4.408250 -7.166000
332.500000 288.300000 9.450000 4.429750 -7.138000
337.500000 288.300000 9.450000 4.451250 -7.110000
342.500000 288.300000 9.450000 4.472750 -7.082000
347.500000 288.300000 9.450000 4.494250 -7.054000
352.500000 288.300000 9.450000 4.515750 -7.026000
357.500000 288.300000 9.450000 4.537250 -6.998000
362.500000 288.300000 9.450000 4.558750 -6.970000
367.500000 288.300000 9.450000 4.580250 -6.942000
372.500000 288.300000 9.450000 4.601750 -6.914000
377.500000 288.300000 9.450000 4.623250 -6.886000
382.500000 288.300000 9.450000 4.644750 -6.858000
387.500000 288.300000 9.450000 4.666250 -6.830000
392.500000 288.300000 9.450000 4.687750 -6.802000
397.500000 288.300000 9.450000 4.709250 -6.774000
402.500000 288.300000 9.450000 4.730750 -6.746000
407.500000 288.300000 9.450000 4.752250 -6.718000
412.500000 288.300000 9.450000 4.773750 -6.690000
417.500000 288.300000 9.450000 4.795250 -6.662000
422.500000 288.300000 9.450000 4.816750 -6.634000
427.500000 288.300000 9.450000 4.838250 -6.606000
432.500000 288.300000 9.450000 4.859750 -6.578000
437.500000 288.300000 9.450000 4.881250 -6.550000
442.500000 288.300000 9.450000 4.902750 -6.522000
447.500000 288.300000 9.450000 4.924250 -6.494000
452.500000 288.300000 9.450000 4.945750 -6.466000
457.500000 288.300000 9.450000 4.967250 -6.438000
462.500000 288.300000 9.450000 4.988750 -6.410000
467.500000 288.300000 9.450000 5.010250 -6.382000
472.500000 288.300000 9.450000 5.031750 -6.354000
477.500000 288.300000 9.450000 5.053250 -6.326000
482.500000 288.300000 9.450000 5.074750 -6.298000
487.500000 288.300000 9.450000 5.096250 -6.270000
492.500000 288.300000 9.450000 5.117750 -6.242000
497.500000 288.300000 9.450000 5.139250 -6.214000
502.500000 288.300000 9.450000 5.160750 -6.186000
507.500000 288.300000 9.450000 5.182250 -6.158000
512.500000 288.300000 9.450000 5.203750 -6.130000
517.500000 288.300000 9.450000 5.225250 -6.102000
522.500000 288.300000 9.450000 5.246750 -6.074000
527.500000 288.300000 9.450000 5.268250 -6.046000
532.500000 288.300000 9.450000 5.289750 -6.018000
537.500000 288.300000 9.450000 5.311250 -5.990000
542.500000 288.300000 9.450000 5.332750 -5.962000
547.500000 288.300000 9.450000 5.354250 -5.934000
552.500000 288.300000 9.450000 5.375750 -5.906000
557.500000 288.300000 9.450000 5.397250 -5.878000
562.500000 288.300000 9.450000 5.418750 -5.850000
567.500000 288.300000 9.450000 5.440250 -5.822000
572.500000 288.300000 9.450000 5.461750 -5.794000
577.500000 288.300000 9.450000 5.483250 -5.766000
582.500000 288.300000 9.450000 5.504750 -5.738000
587.500000 288.300000 9.450000 5.526250 -5.710000
592.500000 288.300000 9.450000 5.547750 -5.682000
597.500000 288.300000 9.450000 5.569250 -5.654000
602.500000 288.300000 9.450000 5.590750 -5.626000
607.500000 288.300000 9.450000 5.612250 -5.598000
612.500000 288.300000 9.450000 5.633750 -5.570000
617.500000 288.300000 9.450000 5.655250 -5.542000
622.500000 288.300000 9.450000 5.676750 -5.514000
627.500000 288.300000 9.450000 5.698250 -5.486000
632.500000 288.300000 9.450000 5.719750 -5.458000
637.500000 288.300000 9.450000 5.741250 -5.430000
642.500000 288.300000 9.450000 5.762750 -5.402000
647.500000 288.300000 9.450000 5.784250 -5.374000
652.500000 288.300000 9.450000 5.805750 -5.346000
657.500000 288.300000 9.450000 5.827250 -5.318000
662.500000 288.300000 9.450000 5.848750 -5.290000
667.500000 288.300000 9.450000 5.870250 -5.262000
672.500000 288.300000 9.450000 5.891750 -5.234000
677.500000 288.300000 9.450000 5.913250 -5.206000
682.500000 288.300000 9.450000 5.934750 -5.178000
687.500000 288.300000 9.450000 5.956250 -5.150000
692.500000 288.300000 9.450000 5.977750 -5.122000
697.500000 288.300000 9.450000 5.999250 -5.094000
702.500000 288.300000 9.450000 6.020750 -5.066000
707.500000 288.300000 9.450000 6.042250 -5.038000
712.500000 288.300000 9.450000 6.063750 -5.010000
717.500000 288.300000 9.450000 6.085250 -4.982000
722.500000 288.300000 9.450000 6.106750 -4.954000
727.500000 288.300000 9.450000 6.128250 -4.926000
732.500000 288.300000 9.450000 6.149750 -4.898000
737.500000 288.300000 9.450000 6.171250 -4.870000
742.500000 288.300000 9.450000 6.192750 -4.842000
747.500000 288.300000 9.450000 6.214250 -4.814000
752.500000 288.300000 9.450000 6.235750 -4.786000
757.500000 288.300000 9.450000 6.257250 -4.758000
762.500000 288.300000 9.450000 6.278750 -4.730000
767.500000 288.300000 9.450000 6.300250 -4.702000
772.500000 288.300000 9.450000 6.321750 -4.674000
777.500000 288.300000 9.450000 6.343250 -4.646000
782.500000 288.300000 9.450000 6.364750 -4.618000
787.500000 288.300000 9.450000 6.386250 -4.590000
792.500000 288.300000 9.450000 6.407750 -4.562000
797.500000 296.357209 4.985037 6.429250 -4.534000
802.500000 296.957434 4.955336 6.450750 -4.506000
807.500000 297.320794 4.925930 6.472250 -4.478000
812.500000 297.596247 4.896816 6.493750 -4.450000
817.500000 297.823108 4.867992 6.515250 -4.422000
822.500000 298.018405 4.839455 6.536750 -4.394000
827.500000 298.191252 4.811202 6.558250 -4.366000
832.500000 298.347165 4.783230 6.579750 -4.338000
837.500000 298.489766 4.755537 6.601250 -4.310000
842.500000 298.621578 4.728119 6.622750 -4.282000
847.500000 298.744436 4.700974 6.644250 -4.254000
852.500000 298.859721 4.674098 6.665750 -4.226000
857.500000 298.968503 4.647491 6.687250 -4.198000
862.500000 299.071626 4.621148 6.708750 -4.170000
867.500000 299.169775 4.595067 6.730250 -4.142000
872.500000 299.263509 4.569246 6.751750 -4.114000
877.500000 299.353294 4.543681 6.773250 -4.086000
882.500000 299.439520 4.518371 6.794750 -4.058000
887.500000 299.522521 4.493313 6.816250 -4.030000
892.500000 299.602582 4.468504 6.837750 -4.002000
897.500000 299.679951 4.443942 6.859250 -3.974000
902.500000 299.754843 4.419624 6.880750 -3.946000
907.500000 299.827447 4.395549 6.902250 -3.918000
912.500000 299.897931 4.371713 6.923750 -3.890000
917.500000 299.966442 4.348114 6.945250 -3.862000
922.500000 300.033114 4.324749 6.966750 -3.834000
927.500000 300.098064 4.301618 6.988250 -3.806000
932.500000 300.161401 4.278716 7.009750 -3.778000
937.500000 300.223220 4.256043 7.031250 -3.750000
942.500000 300.283609 4.233595 7.052750 -3.722000
947.500000 300.342649 4.211370 7.074250 -3.694000
952.500000 300.400411 4.189367 7.095750 -3.666000
957.500000 300.456964 4.167582 7.117250 -3.638000
962.500000 300.512369 4.146014 7.138750 -3.610000
967.500000 300.566681 4.124661 7.160250 -3.582000
972.500000 300.619954 4.103520 7.181750 -3.554000
977.500000 300.672236 4.082590 7.203250 -3.526000
982.500000 300.723571 4.061868 7.224750 -3.498000
987.500000 300.774002 4.041352 7.246250 -3.470000
992.500000 300.823566 4.021040 7.267750 -3.442000
997.500000 300.872301 4.000930 7.289250 -3.414000
1002.500000 300.920241 3.981021 7.310750 -3.386000
1007.500000 300.967416 3.961309 7.332250 -3.358000
1012.500000 301.013857 3.941794 7.353750 -3.330000
1017.500000 301.059591 3.922473 7.375250 -3.302000
1022.500000 301.104646 3.903344 7.396750 -3.274000
1027.500000 301.149045 3.884405 7.418250 -3.246000
1032.500000 301.192812 3.865655 7.439750 -3.218000
1037.500000 301.235969 3.847092 7.461250 -3.190000
1042.500000 301.278536 3.828713 7.482750 -3.162000
1047.500000 301.320534 3.810517 7.504250 -3.134000
1052.500000 301.361982 3.792502 7.525750 -3.106000
1057.500000 301.402896 3.774666 7.547250 -3.078000
1062.500000 301.443294 3.757008 7.568750 -3.050000
1067.500000 301.483191 3.739525 7.590250 -3.022000
1072.500000 301.522604 3.722217 7.611750 -2.994000
1077.500000 301.561546 3.705080 7.633250 -2.966000
1082.500000 301.600031 3.688115 7.654750 -2.938000
1087.500000 301.638072 3.671318 7.676250 -2.910000
1092.500000 301.675682 3.654688 7.697750 -2.882000
1097.500000 301.712873 3.638223 7.719250 -2.854000
1102.500000 301.749657 3.621923 7.740750 -2.826000
1107.500000 301.786044 3.605784 7.762250 -2.798000
1112.500000 301.822045 3.589806 7.783750 -2.770000
1117.500000 301.857670 3.573988 7.805250 -2.742000
1122.500000 301.892928 3.558326 7.826750 -2.714000
1127.500000 301.927830 3.542821 7.848250 -2.686000
1132.500000 301.962383 3.527469 7.869750 -2.658000
1137.500000 301.996597 3.512271 7.891250 -2.630000
1142.500000 302.030479 3.497223 7.912750 -2.602000
1147.500000 302.064038 3.482326 7.934250 -2.574000
1152.500000 302.097281 3.467576 7.955750 -2.546000
1157.500000 302.130216 3.452974 7.977250 -2.518000
1162.500000 302.162849 3.438516 7.998750 -2.490000
1167.500000 302.195187 3.424203 8.020250 -2.462000
1172.500000 302.227237 3.410032 8.041750 -2.434000
1177.500000 302.259006 3.396002 8.063250 -2.406000
1182.500000 302.290499 3.382111 8.084750 -2.378000
1187.500000 302.321722 3.368359 8.106250 -2.350000
1192.500000 302.352681 3.354744 8.127750 -2.322000
1197.500000 302.383381 3.341264 8.149250 -2.294000
1202.500000 302.413829 3.327918 8.170750 -2.266000
1207.500000 302.444028 3.314705 8.192250 -2.238000
1212.500000 302.473984 3.301623 8.213750 -2.210000
1217.500000 302.503702 3.288672 8.235250 -2.182000
1222.500000 302.533186 3.275850 8.256750 -2.154000
1227.500000 302.562442 3.263155 8.278250 -2.126000
1232.500000 302.591472 3.250586 8.299750 -2.098000
1237.500000 302.620283 3.238143 8.321250 -2.070000
1242.500000 302.648877 3.225823 8.342750 -2.042000
1247.500000 302.677259 3.213626 8.364250 -2.014000
1252.500000 302.705433 3.201550 8.385750 -1.986000
1257.500000 302.733402 3.189594 8.407250 -1.958000
1262.500000 302.761170 3.177758 8.428750 -1.930000
1267.500000 302.788741 3.166039 8.450250 -1.902000
1272.500000 302.816118 3.154436 8.471750 -1.874000
1277.500000 302.843305 3.142950 8.493250 -1.846000
1282.500000 302.870305 3.131577 8.514750 -1.818000
1287.500000 302.897120 3.120318 8.536250 -1.790000
1292.500000 302.923755 3.109170 8.557750 -1.762000
1297.500000 302.950212 3.098134 8.579250 -1.734000
1302.500000 302.976493 3.087207 8.600750 -1.706000
1307.500000 303.002603 3.076389 8.622250 -1.678000
1312.500000 303.028544 3.065679 8.643750 -1.650000
1317.500000 303.054318 3.055075 8.665250 -1.622000
1322.500000 303.079928 3.044577 8.686750 -1.594000
1327.500000 303.105377 3.034184 8.708250 -1.566000
1332.500000 303.130667 3.023893 8.729750 -1.538000
1337.500000 303.155800 3.013705 8.751250 -1.510000
1342.500000 303.180780 3.003619 8.772750 -1.482000
1347.500000 303.205608 2.993633 8.794250 -1.454000
1352.500000 303.230287 2.983746 8.815750 -1.426000
1357.500000 303.254818 2.973957 8.837250 -1.398000
1362.500000 303.279205 2.964266 8.858750 -1.370000
1367.500000 303.303449 2.954672 8.880250 -1.342000
1372.500000 303.327552 2.945173 8.901750 -1.314000
1377.500000 303.351516 2.935768 8.923250 -1.286000
1382.500000 303.375343 2.926457 8.944750 -1.258000
1387.500000 303.399036 2.917239 8.966250 -1.230000
1392.500000 303.422596 2.908112 8.987750 -1.202000
1397.500000 303.446025 2.899076 9.009250 -1.174000
1402.500000 303.469324 2.890130 9.030750 -1.146000
1407.500000 303.492496 2.881273 9.052250 -1.118000
1412.500000 303.515542 2.872504 9.073750 -1.090000
1417.500000 303.538465 2.863823 9.095250 -1.062000
1422.500000 303.561264 2.855228 9.116750 -1.034000
1427.500000 303.583943 2.846718 9.138250 -1.006000
1432.500000 303.606503 2.838293 9.159750 -0.978000
1437.500000 303.628945 2.829952 9.181250 -0.950000
1442.500000 303.651271 2.821694 9.202750 -0.922000
1447.500000 303.673482 2.813518 9.224250 -0.894000
1452.500000 303.695581 2.805423 9.245750 -0.866000
1457.500000 303.717567 2.797409 9.267250 -0.838000
1462.500000 303.739443 2.789475 9.288750 -0.810000
1467.500000 303.761210 2.781619 9.310250 -0.782000
1472.500000 303.782870 2.773842 9.331750 -0.754000
1477.500000 303.804423 2.766142 9.353250 -0.726000
1482.500000 303.825871 2.758519 9.374750 -0.698000
1487.500000 303.847215 2.750971 9.396250 -0.670000
1492.500000 303.868457 2.743499 9.417750 -0.642000
1497.500000 303.889598 2.736101 9.439250 -0.614000
1502.500000 303.910638 2.728777 9.460750 -0.586000
