 &time_control
 run_days                            = 0,
 run_hours                           = 15,
 run_minutes                         = 00,
 run_seconds                         = 00,
 start_year                          = 1997,
 start_month                         = 06,  
 start_day                           = 21,  
 start_hour                          = 11,  
 start_minute                        = 30,  
 start_second                        = 00,  
 end_year                            = 1997,
 end_month                           = 06,  
 end_day                             = 22,  
 end_hour                            = 02,  
 end_minute                          = 30,  
 end_second                          = 00,  
 history_interval_m                  = 05,  
 history_interval_s                  = 00,  
 frames_per_outfile                  = 3000,
 restart                             = .false.,
 restart_interval_m                  = 180,
 io_form_history                     = 2
 io_form_restart                     = 2
 io_form_input                       = 2
 io_form_boundary                    = 2
 debug_level                         = 0
 io_form_auxinput6                   = 2
 auxinput6_inname                    = "input_ls_forcing.nc"
 auxinput6_interval_h                = 3
 io_form_auxinput7                   = 2
 auxinput7_inname                    = "input_sfc_forcing.nc"
 auxinput7_interval_m                = 30
 /

 &domains
 time_step                           = 0,
 time_step_fract_num                 = 1,
 time_step_fract_den                 = 2,
 max_dom                             = 1,
 s_we                                = 1,     1,     1,
 e_we                                = 64,   100,    151,
 s_sn                                = 1,     1,     1,
 e_sn                                = 64,   100,    151,
 s_vert                              = 1,     1,     1,
 e_vert                              = 110,   100,    41,
 dx                                  = 100,   50,    16.6667, 
 dy                                  = 100,   50,    16.6667, 
 ztop                                = 4400,  2000,  2000,
 grid_id                             = 1,     2,     3,
 parent_id                           = 0,     1,     2,
 i_parent_start                      = 0,     10,    15,
 j_parent_start                      = 0,     10,    15,
 parent_grid_ratio                   = 1,     3,     3,
 parent_time_step_ratio              = 1,     3,     3,
 feedback                            = 0,
 smooth_option                       = 0
 /

 &physics
 mp_physics                          = 2,     0,     0,
 ra_lw_physics                       = 0,     0,     0,
 ra_sw_physics                       = 0,     0,     0,
 radt                                = 0,     0,     0,
 sf_sfclay_physics                   = 1,     1,     1,
 sf_surface_physics                  = 2,     0,     0,
 bl_pbl_physics                      = 0,     0,     0,
 bldt                                = 0,     0,     0,
 cu_physics                          = 0,     0,     0,
 cudt                                = 0,     0,     0,
 isfflx                              = 11,
 ifsnow                              = 0,
 icloud                              = 1,
 num_soil_layers                     = 4,
 mp_zero_out                         = 0,
 /

 &fdda
 /

 &crm
 crm_zsfc                            = 0.1,
 crm_lat                             = 36.6,
 crm_lon                             = -97.5,
 crm_num_pert_layers                 = 4,
 crm_pert_amp                        = 0.1,
 crm_ccn_init                        = 100,
 crm_force_opt                       = 1,
 crm_th_adv_opt                      = 1, 
 crm_qv_adv_opt                      = 1,
 crm_th_rlx_opt                      = 0,
 crm_qv_rlx_opt                      = 0,
 crm_vert_adv_opt                    = 0,
 crm_num_force_layers                = 4,
 crm_tau                             = 3600,
 crm_flx_opt                         = 2,
 crm_albedo_opt                      = 2,
 crm_tsk_opt                         = 2,
 crm_sh_flx                          = 250,
 crm_lh_flx                          = 150,
 crm_albedo                          = 0.2,
 crm_tsk                             = 303,
 /

 &dynamics
 rk_ord                              = 3,
 diff_opt                            = 2,
 km_opt                              = 2,
 damp_opt                            = 2,
 zdamp                               = 900.,  5000.,  5000.,
 dampcoef                            = 0.003,    0.2,    0.2
 khdif                               = 1.,      1.,    .05,
 kvdif                               = 1.,      1.,    .05,
 c_s                                 = 0.18
 c_k                                 = 0.10
 mix_isotropic                       = 1
 smdiv                               = 0.1,    0.1,    0.1,
 emdiv                               = 0.01,   0.01,   0.01,
 epssm                               = 0.1,    0.1,    0.1
 tke_heat_flux                       = 0.24,   0.24,   0.24,
 time_step_sound                     = 6,      6,      6,
 h_mom_adv_order                     = 5,      5,      5,
 v_mom_adv_order                     = 3,      3,      3,
 h_sca_adv_order                     = 5,      5,      5,
 v_sca_adv_order                     = 3,      3,      3,
 mix_full_fields                     = .true., .true., .true.,
 non_hydrostatic                     = .true., .true., .true.,
 pert_coriolis                       = .true., .true., .true.,
 /

 &bdy_control
 periodic_x                          = .true., .false.,.false.,
 symmetric_xs                        = .false.,.false.,.false.,
 symmetric_xe                        = .false.,.false.,.false.,
 open_xs                             = .false.,.false.,.false.,
 open_xe                             = .false.,.false.,.false.,
 periodic_y                          = .true., .false.,.false.,
 symmetric_ys                        = .false.,.false.,.false.,
 symmetric_ye                        = .false.,.false.,.false.,
 open_ys                             = .false.,.false.,.false.,
 open_ye                             = .false.,.false.,.false.,
 nested                              = .false., .true., .true.,
 /

 &grib2
 /

 &namelist_quilt
 nio_tasks_per_group = 0,
 nio_groups = 1,
 /
