975.90 295.60 15.410
21.00 296.11 15.833 -1.549 2.212
33.40 296.58 16.190 -1.696 2.714
43.20 296.91 16.275 -2.015 3.103
51.30 297.14 16.274 -2.279 3.647
59.70 297.37 16.260 -2.544 4.071
68.20 297.58 16.225 -2.781 4.629
78.20 297.82 16.184 -2.950 5.110
89.10 298.09 16.155 -3.150 5.456
99.20 298.28 16.083 -3.297 5.947
109.00 298.42 16.007 -3.380 6.357
118.50 298.55 15.939 -3.450 6.772
127.00 298.66 15.891 -3.463 7.100
134.90 298.81 15.874 -3.465 7.432
143.80 299.01 15.840 -3.417 7.674
153.30 299.17 15.718 -3.360 7.916
160.90 299.25 15.626 -3.297 8.159
168.60 299.31 15.575 -3.225 8.402
177.70 299.39 15.539 -3.112 8.551
187.00 299.44 15.487 -3.028 8.793
195.40 299.52 15.445 -2.905 8.940
202.70 299.66 15.408 -2.778 9.085
210.70 299.77 15.346 -2.646 9.228
218.30 299.82 15.271 -2.511 9.369
225.30 299.91 15.193 -2.395 9.606
232.20 300.01 15.123 -2.250 9.744
241.30 300.12 15.043 -2.121 9.977
252.30 300.30 14.960 -1.965 10.111
261.70 300.49 14.890 -1.823 10.340
269.90 300.68 14.830 -1.674 10.568
278.30 300.83 14.774 -1.705 10.766
286.70 300.88 14.703 -1.545 10.992
294.90 300.93 14.678 -1.559 11.091
304.00 300.98 14.662 -1.389 11.315
313.70 301.01 14.634 -1.414 11.514
322.40 301.04 14.616 -1.233 11.735
332.50 301.09 14.619 -1.254 11.934
342.50 301.15 14.631 -1.275 12.133
350.00 301.18 14.618 -1.296 12.332
356.10 301.21 14.625 -1.317 12.531
362.00 301.23 14.589 -1.338 12.730
368.60 301.27 14.534 -1.133 12.951
376.50 301.29 14.478 -1.150 13.150
384.60 301.32 14.470 -1.159 13.249
391.40 301.33 14.494 -1.177 13.449
398.70 301.34 14.479 -0.949 13.567
406.70 301.37 14.453 -0.956 13.667
413.70 301.41 14.470 -0.717 13.681
421.10 301.42 14.488 -0.482 13.792
428.70 301.43 14.498 -0.241 13.798
436.20 301.48 14.510 -0.241 13.798
442.80 301.52 14.508 0.000 13.700
449.40 301.56 14.511 0.237 13.598
457.30 301.59 14.573 0.471 13.492
466.60 301.69 14.922 0.468 13.392
476.60 301.83 15.658 0.696 13.282
484.80 301.93 16.190 0.686 13.082
492.70 301.97 16.471 0.900 12.869
500.60 301.99 16.610 0.893 12.769
508.90 302.03 16.699 0.879 12.569
517.80 302.10 16.661 0.865 12.370
526.80 302.18 16.557 0.851 12.170
535.20 302.25 16.477 0.837 11.971
542.80 302.32 16.403 0.618 11.784
551.20 302.40 16.298 0.607 11.584
560.10 302.45 16.194 0.597 11.384
568.30 302.50 16.058 0.591 11.285
575.30 302.54 15.933 0.581 11.085
581.90 302.61 15.743 0.570 10.885
588.20 302.71 15.460 0.565 10.785
595.40 302.84 15.109 0.560 10.685
603.20 302.95 14.745 0.550 10.486
610.50 303.05 14.496 0.544 10.386
617.10 303.14 14.241 0.539 10.286
624.20 303.23 13.901 0.712 10.175
632.40 303.34 13.638 0.705 10.075
640.00 303.42 13.476 0.880 10.062
646.60 303.51 13.388 0.872 9.962
653.90 303.59 13.332 1.045 9.945
660.90 303.65 13.284 1.045 9.945
667.90 303.69 13.267 1.219 9.925
675.40 303.69 13.246 1.392 9.903
683.20 303.71 13.241 1.406 10.002
690.80 303.72 13.239 1.580 9.976
697.70 303.73 13.236 1.580 9.976
704.30 303.72 13.225 1.771 10.045
712.10 303.73 13.198 1.771 10.045
719.40 303.74 13.186 1.946 10.013
726.40 303.75 13.189 1.946 10.013
733.70 303.77 13.182 1.946 10.013
740.40 303.76 13.122 1.946 10.013
747.50 303.76 13.102 1.946 10.013
755.00 303.77 13.148 2.121 9.977
761.90 303.78 13.161 2.121 9.977
768.90 303.80 13.171 2.100 9.879
776.20 303.80 13.177 2.100 9.879
783.00 303.80 13.203 2.100 9.879
789.90 303.81 13.294 2.079 9.781
797.30 303.85 13.339 2.079 9.781
804.20 303.85 13.348 2.079 9.781
811.40 303.85 13.382 2.058 9.684
818.70 303.86 13.407 2.038 9.586
825.60 303.86 13.414 2.038 9.586
832.40 303.87 13.440 2.182 9.451
839.40 303.87 13.465 2.160 9.354
846.80 303.89 13.489 2.298 9.218
855.00 303.90 13.529 2.274 9.121
862.60 303.93 13.556 2.407 8.983
869.90 303.97 13.556 2.536 8.844
876.80 304.01 13.589 2.661 8.702
883.50 304.04 13.623 2.781 8.560
890.70 304.05 13.615 2.898 8.415
897.50 304.07 13.666 2.865 8.321
904.50 304.09 13.755 2.941 8.081
911.80 304.11 13.873 3.010 7.842
919.00 304.13 14.025 2.939 7.655
927.10 304.15 14.133 2.867 7.469
934.70 304.18 14.214 2.795 7.282
942.10 304.25 14.334 2.688 7.002
950.50 304.42 14.221 2.580 6.722
959.40 304.67 13.739 2.394 6.578
969.00 304.96 13.225 2.292 6.296
977.30 305.13 12.921 2.116 6.146
986.30 305.35 12.644 1.947 5.992
996.10 305.50 12.427 1.681 5.864
1003.80 305.55 12.304 1.553 5.796
1010.40 305.63 12.181 1.427 5.725
1017.20 305.70 12.054 1.206 5.673
1024.10 305.82 11.912 0.990 5.613
1031.60 305.95 11.744 0.892 5.630
1039.70 306.05 11.637 0.682 5.558
1047.30 306.15 11.568 0.585 5.569
1054.50 306.24 11.523 0.384 5.487
1062.20 306.28 11.482 0.288 5.492
1070.80 306.28 11.441 0.188 5.397
1079.50 306.29 11.403 0.094 5.399
1087.90 306.30 11.381 0.000 5.300
1095.60 306.32 11.393 0.000 5.200
1102.90 306.33 11.502 -0.089 5.099
1110.40 306.35 11.722 -0.087 4.999
1117.20 306.37 11.875 -0.086 4.899
1123.80 306.38 12.025 -0.084 4.799
1130.60 306.40 12.098 -0.082 4.699
1137.30 306.42 12.048 -0.080 4.599
1144.60 306.47 11.910 -0.079 4.499
1151.40 306.51 11.804 -0.077 4.399
1157.70 306.53 11.742 -0.077 4.399
1164.50 306.56 11.810 -0.075 4.299
1171.40 306.59 11.938 -0.073 4.199
1178.10 306.61 12.047 -0.072 4.099
1185.90 306.62 12.163 -0.143 4.098
1193.50 306.64 12.294 -0.140 3.998
1200.60 306.63 12.576 -0.136 3.898
1207.70 306.61 12.924 -0.204 3.895
1214.90 306.61 13.181 -0.136 3.898
1223.20 306.62 13.327 -0.133 3.798
1232.10 306.65 13.335 -0.133 3.798
1240.20 306.68 13.265 -0.066 3.799
1247.00 306.71 13.239 0.000 3.700
1253.30 306.71 13.289 0.065 3.699
1260.40 306.71 13.350 0.194 3.695
1267.70 306.72 13.351 0.258 3.691
1274.40 306.72 13.333 0.322 3.686
1281.40 306.73 13.330 0.451 3.672
1288.80 306.74 13.320 0.515 3.664
1296.80 306.76 13.298 0.579 3.654
1304.50 306.77 13.293 0.642 3.644
1311.90 306.78 13.326 0.687 3.534
1319.20 306.77 13.287 0.687 3.534
1325.60 306.76 13.225 0.748 3.521
1331.70 306.80 13.200 0.748 3.521
1339.20 306.90 13.073 0.748 3.521
1346.30 306.97 12.904 0.728 3.424
1352.50 307.01 12.836 0.728 3.424
1359.60 307.04 12.793 0.728 3.424
1366.80 307.06 12.753 0.668 3.436
1373.20 307.07 12.726 0.668 3.436
1379.90 307.09 12.711 0.668 3.436
1386.80 307.11 12.673 0.590 3.348
1393.20 307.12 12.639 0.590 3.348
1400.10 307.13 12.589 0.590 3.348
1407.00 307.16 12.452 0.590 3.348
1414.70 307.21 12.203 0.532 3.358
1422.30 307.25 12.012 0.532 3.358
1429.40 307.28 11.891 0.548 3.457
1436.40 307.31 11.786 0.548 3.457
1442.80 307.32 11.684 0.548 3.457
1449.50 307.35 11.594 0.548 3.457
1456.70 307.35 11.784 0.548 3.457
1463.60 307.31 12.182 0.608 3.447
1470.20 307.28 12.472 0.608 3.447
1476.80 307.26 12.581 0.625 3.545
1483.90 307.26 12.597 0.625 3.545
1490.80 307.25 12.577 0.687 3.534
1497.90 307.25 12.580 0.687 3.534
1505.20 307.26 12.703 0.687 3.534
1513.20 307.26 13.033 0.748 3.521
1520.40 307.23 13.287 0.748 3.521
1527.30 307.25 13.338 0.748 3.521
1534.40 307.25 13.321 0.748 3.521
1541.60 307.27 13.332 0.748 3.521
1549.30 307.29 13.305 0.748 3.521
1556.90 307.32 13.214 0.748 3.521
1563.90 307.39 13.024 0.748 3.521
1570.80 307.47 12.915 0.748 3.521
1578.30 307.52 12.894 0.748 3.521
1586.00 307.56 12.846 0.748 3.521
1593.20 307.59 12.741 0.748 3.521
1601.20 307.61 12.624 0.728 3.424
1608.30 307.63 12.552 0.728 3.424
1615.10 307.64 12.540 0.728 3.424
1622.60 307.64 12.543 0.707 3.326
1630.40 307.66 12.530 0.707 3.326
1637.30 307.68 12.535 0.765 3.313
1644.20 307.67 12.507 0.742 3.215
1652.20 307.69 12.453 0.686 3.228
1659.80 307.71 12.409 0.686 3.228
1667.10 307.75 12.362 0.665 3.130
1674.30 307.78 12.360 0.665 3.130
1681.20 307.82 12.391 0.611 3.141
1688.40 307.86 12.364 0.556 3.151
1695.50 307.91 12.292 0.556 3.151
1702.60 307.96 12.161 0.556 3.151
1710.10 308.02 12.037 0.485 3.062
1717.50 308.09 11.860 0.485 3.062
1724.40 308.13 11.704 0.431 3.070
1731.60 308.16 11.638 0.431 3.070
1739.50 308.19 11.591 0.431 3.070
1747.00 308.19 11.542 0.378 3.077
1755.00 308.21 11.493 0.366 2.978
1763.00 308.24 11.445 0.314 2.984
1770.60 308.25 11.436 0.253 2.889
1778.60 308.26 11.444 0.202 2.893
1787.50 308.28 11.436 0.147 2.796
1795.80 308.33 11.344 0.094 2.698
1803.50 308.35 11.239 0.000 2.600
1811.00 308.37 11.176 -0.044 2.500
1817.80 308.39 11.115 -0.131 2.497
1825.30 308.41 11.055 -0.167 2.394
1833.80 308.48 10.884 -0.240 2.287
1840.60 308.54 10.708 -0.280 2.283
1847.00 308.56 10.616 -0.306 2.179
1854.10 308.59 10.575 -0.382 2.167
1861.40 308.60 10.556 -0.420 2.160
1868.10 308.61 10.553 -0.420 2.160
1875.20 308.61 10.546 -0.457 2.152
1882.40 308.63 10.534 -0.495 2.144
1889.90 308.64 10.487 -0.569 2.125
1897.40 308.68 10.430 -0.606 2.115
1904.40 308.69 10.397 -0.643 2.104
1911.80 308.72 10.383 -0.680 2.092
1919.00 308.75 10.262 -0.752 2.067
1926.00 308.81 10.046 -0.788 2.054
1933.20 308.87 9.825 -0.860 2.025
1940.70 308.92 9.709 -0.895 2.010
1948.10 308.98 9.777 -0.964 1.977
1955.40 309.01 9.997 -0.999 1.960
1962.60 309.08 10.110 -1.033 1.942
1969.90 309.14 10.283 -1.018 1.837
1977.50 309.18 10.349 -1.050 1.819
1984.30 309.20 10.294 -1.050 1.819
1991.50 309.24 10.218 -1.082 1.800
1999.20 309.26 10.151 -1.082 1.800
2006.60 309.29 10.104 -1.082 1.800
2013.20 309.32 10.023 -1.082 1.800
2020.20 309.34 10.008 -1.082 1.800
2027.10 309.36 9.986 -1.030 1.714
2034.30 309.41 9.957 -1.030 1.714
2041.20 309.47 9.937 -1.030 1.714
2047.90 309.51 9.926 -1.030 1.714
2054.60 309.54 9.901 -1.030 1.714
2061.60 309.56 9.926 -0.950 1.645
2068.80 309.62 9.947 -0.950 1.645
2075.70 309.63 9.934 -0.921 1.662
2081.40 309.65 9.908 -0.873 1.574
2087.40 309.69 9.859 -0.845 1.589
2094.40 309.71 9.760 -0.817 1.604
2101.90 309.73 9.709 -0.789 1.618
2109.20 309.73 9.604 -0.761 1.631
2116.30 309.78 9.550 -0.732 1.644
2123.70 309.81 9.585 -0.732 1.644
2131.10 309.84 9.578 -0.732 1.644
2139.00 309.87 9.527 -0.732 1.644
2148.20 309.93 9.475 -0.773 1.736
2157.50 309.97 9.409 -0.773 1.736
2165.10 310.02 9.306 -0.845 1.813
2171.40 310.06 9.210 -0.921 1.887
2178.10 310.09 9.132 -0.999 1.960
2185.60 310.11 9.057 -1.080 2.031
2192.30 310.16 8.927 -1.164 2.099
2198.70 310.21 8.783 -1.250 2.165
2205.50 310.26 8.680 -1.300 2.252
2212.50 310.30 8.605 -1.391 2.314
2219.10 310.34 8.575 -1.484 2.375
2225.70 310.35 8.553 -1.579 2.432
2232.30 310.38 8.546 -1.634 2.516
2238.70 310.42 8.507 -1.678 2.487
2245.80 310.49 8.455 -1.733 2.570
2252.90 310.53 8.453 -1.778 2.539
2260.30 310.54 8.443 -1.835 2.621
2267.20 310.58 8.471 -1.881 2.589
2273.30 310.59 8.512 -1.881 2.589
2279.50 310.61 8.549 -1.940 2.670
2286.30 310.63 8.586 -1.986 2.635
2293.70 310.64 8.647 -1.986 2.635
2300.60 310.68 8.705 -1.986 2.635
2307.30 310.73 8.724 -1.986 2.635
2314.10 310.76 8.734 -1.986 2.635
2321.80 310.79 8.745 -2.032 2.600
2329.30 310.81 8.753 -2.032 2.600
2336.10 310.85 8.678 -2.032 2.600
2343.20 310.92 8.616 -2.077 2.565
2350.40 310.96 8.662 -2.121 2.528
2357.10 310.97 8.624 -2.165 2.491
2364.40 310.99 8.562 -2.208 2.452
2372.30 311.05 8.495 -2.251 2.413
2379.70 311.14 8.360 -2.292 2.374
2386.40 311.17 8.329 -2.446 2.362
2393.80 311.20 8.400 -2.487 2.319
2401.70 311.28 8.271 -2.641 2.296
2408.90 311.35 8.198 -2.681 2.250
2415.70 311.41 8.211 -2.798 2.266
2422.40 311.45 8.223 -2.837 2.216
2428.80 311.47 8.253 -2.955 2.227
2435.70 311.51 8.293 -2.993 2.175
2443.30 311.56 8.335 -3.031 2.122
2450.80 311.61 8.372 -3.031 2.122
2457.40 311.64 8.374 -3.031 2.122
2464.80 311.71 8.372 -3.031 2.122
2471.90 311.79 8.398 -2.993 2.175
2478.70 311.86 8.429 -3.035 2.287
2485.80 311.96 8.457 -2.994 2.340
2493.30 312.05 8.450 -2.953 2.391
2500.80 312.09 8.386 -2.868 2.493
2508.40 312.11 8.317 -2.852 2.660
2516.30 312.12 8.299 -2.805 2.709
2524.00 312.15 8.341 -2.779 2.877
2531.70 312.19 8.362 -2.728 2.925
2538.80 312.21 8.335 -2.743 3.047
2546.00 312.25 8.302 -2.700 3.217
2554.30 312.27 8.264 -2.700 3.217
2562.30 312.28 8.203 -2.706 3.342
2569.60 312.30 8.143 -2.706 3.342
2576.60 312.33 8.172 -2.647 3.388
2584.50 312.37 8.137 -2.647 3.388
2592.50 312.41 7.979 -2.709 3.467
2599.40 312.45 7.904 -2.769 3.419
2607.10 312.49 7.892 -2.769 3.419
2615.30 312.52 7.881 -2.769 3.419
2622.80 312.55 7.852 -2.828 3.371
2629.70 312.58 7.851 -2.828 3.371
2636.80 312.62 7.867 -2.887 3.321
2643.90 312.64 7.816 -2.944 3.270
2651.80 312.68 7.762 -3.069 3.291
2659.10 312.69 7.760 -3.069 3.291
2665.60 312.69 7.745 -3.195 3.309
2672.20 312.69 7.714 -3.253 3.253
2679.20 312.72 7.767 -3.381 3.265
2687.10 312.75 7.825 -3.437 3.205
2695.40 312.80 7.832 -3.493 3.145
2703.10 312.83 7.883 -3.567 3.212
2710.30 312.82 7.905 -3.623 3.149
2717.10 312.82 7.925 -3.677 3.085
2723.90 312.84 7.942 -3.677 3.085
2731.10 312.81 7.924 -3.730 3.021
2737.90 312.84 7.914 -3.730 3.021
2745.10 312.90 7.823 -3.653 2.958
2752.70 312.90 7.758 -3.653 2.958
2761.50 312.87 7.806 -3.653 2.958
2769.90 312.89 7.827 -3.575 2.895
2777.40 312.91 7.837 -3.575 2.895
2784.70 312.91 7.837 -3.524 2.957
2792.40 312.94 7.813 -3.524 2.957
2800.00 312.98 7.779 -3.396 2.952
2808.00 312.98 7.822 -3.396 2.952
2815.90 312.99 7.885 -3.396 2.952
2824.00 313.03 7.880 -3.270 2.944
2831.80 313.06 7.847 -3.270 2.944
2839.70 313.07 7.811 -3.196 2.877
2848.90 313.08 7.810 -3.196 2.877
2857.20 313.14 7.805 -3.121 2.810
2865.00 313.21 7.735 -3.047 2.743
2872.30 313.30 7.697 -2.973 2.677
2879.40 313.35 7.687 -2.898 2.610
2886.40 313.36 7.657 -2.824 2.543
2893.90 313.37 7.625 -2.792 2.427
2900.70 313.40 7.614 -2.758 2.314
2907.40 313.42 7.622 -2.798 2.266
2913.80 313.47 7.592 -2.758 2.155
2920.90 313.50 7.547 -2.751 1.998
2928.30 313.51 7.567 -2.785 1.950
2935.50 313.56 7.586 -2.768 1.797
2943.30 313.63 7.573 -2.829 1.700
2950.60 313.68 7.528 -2.886 1.600
2957.70 313.72 7.485 -2.940 1.498
2966.00 313.76 7.453 -2.966 1.447
2974.80 313.77 7.410 -2.923 1.302
2982.50 313.80 7.387 -2.946 1.250
2990.30 313.79 7.366 -2.967 1.199
2997.60 313.80 7.369 -2.894 1.111
3004.90 313.82 7.401 -2.894 1.111
3012.90 313.82 7.510 -2.801 1.075
3020.80 313.79 7.555 -2.707 1.039
3028.40 313.78 7.532 -2.707 1.039
3035.60 313.81 7.526 -2.614 1.003
3044.30 313.80 7.526 -2.521 0.968
3053.00 313.77 7.571 -2.503 1.011
3061.10 313.78 7.658 -2.411 0.974
3069.40 313.77 7.729 -2.411 0.974
3078.10 313.75 7.777 -2.427 0.932
3086.60 313.75 7.850 -2.334 0.896
3094.20 313.74 7.871 -2.349 0.855
3101.40 313.75 7.883 -2.378 0.773
3108.90 313.74 7.913 -2.403 0.689
3115.90 313.73 7.953 -2.426 0.605
3122.70 313.71 7.987 -2.445 0.520
3130.50 313.72 8.036 -2.568 0.407
3138.80 313.76 8.095 -2.581 0.317
3147.00 313.82 8.098 -2.693 0.188
3154.50 313.86 8.062 -2.698 0.094
3161.50 313.90 8.006 -2.800 0.000
3168.70 313.98 7.959 -2.898 -0.101
3176.00 314.02 7.907 -2.893 -0.202
3183.90 314.09 7.808 -2.984 -0.314
3191.40 314.16 7.727 -3.077 -0.378
3198.80 314.23 7.675 -3.176 -0.390
3206.40 314.34 7.553 -3.169 -0.445
3213.70 314.46 7.416 -3.268 -0.459
3221.50 314.53 7.341 -3.367 -0.473
3230.00 314.60 7.283 -3.367 -0.473
3238.10 314.69 7.196 -3.367 -0.473
3245.80 314.75 7.098 -3.466 -0.487
3252.80 314.76 7.118 -3.466 -0.487
3260.20 314.79 7.227 -3.565 -0.501
3268.60 314.87 7.318 -3.573 -0.439
3277.00 314.94 7.325 -3.672 -0.451
3285.60 315.06 7.317 -3.664 -0.515
3293.90 315.17 7.303 -3.763 -0.529
3301.60 315.27 7.204 -3.862 -0.543
3309.40 315.42 7.086 -3.961 -0.557
3317.00 315.55 6.835 -4.060 -0.571
3324.50 315.62 6.503 -4.159 -0.585
3332.60 315.68 6.317 -4.247 -0.673
3340.70 315.70 6.252 -4.346 -0.688
3348.70 315.74 6.215 -4.445 -0.704
3356.80 315.76 6.221 -4.445 -0.704
3364.70 315.75 6.195 -4.555 -0.640
3372.10 315.80 6.212 -4.654 -0.654
3379.90 315.78 6.227 -4.654 -0.654
3387.70 315.75 6.185 -4.741 -0.751
3394.80 315.78 6.173 -4.741 -0.751
3401.90 315.79 6.189 -4.741 -0.751
3409.00 315.77 6.172 -4.741 -0.751
3417.00 315.82 6.153 -4.727 -0.834
3424.40 315.86 6.141 -4.727 -0.834
3431.70 315.82 6.075 -4.614 -0.897
3438.60 315.90 5.990 -4.614 -0.897
3445.20 315.97 5.919 -4.515 -0.878
3452.00 315.99 5.913 -4.515 -0.878
3459.30 316.06 5.891 -4.417 -0.859
3466.40 316.17 5.825 -4.417 -0.859
3473.30 316.32 5.725 -4.333 -0.764
3480.30 316.44 5.544 -4.346 -0.688
3487.10 316.53 5.409 -4.247 -0.673
3493.50 316.64 5.276 -4.258 -0.598
3500.30 316.77 5.089 -4.268 -0.524
3507.60 316.92 4.845 -4.276 -0.449
3515.00 317.04 4.658 -4.284 -0.375
3521.90 317.11 4.608 -4.290 -0.300
3528.40 317.17 4.537 -4.290 -0.300
3535.30 317.23 4.415 -4.294 -0.225
3542.00 317.28 4.310 -4.294 -0.225
3549.00 317.35 4.339 -4.294 -0.225
3556.10 317.43 4.503 -4.294 -0.225
3563.30 317.41 4.693 -4.294 -0.225
3570.30 317.38 4.854 -4.294 -0.225
3577.30 317.38 5.013 -4.294 -0.225
3584.70 317.39 5.202 -4.294 -0.225
3592.00 317.47 5.263 -4.194 -0.220
3599.50 317.53 5.189 -4.194 -0.220
3607.40 317.56 5.136 -4.098 -0.143
3615.70 317.59 5.152 -4.098 -0.143
3623.70 317.66 5.185 -3.999 -0.070
3631.60 317.72 5.037 -3.999 -0.070
3639.10 317.73 4.793 -4.000 0.000
3646.50 317.73 4.663 -3.999 0.070
3654.40 317.78 4.556 -3.999 0.070
3662.00 317.86 4.502 -3.998 0.140
3668.80 317.87 4.473 -3.998 0.140
3675.50 317.87 4.405 -4.098 0.143
3682.10 318.00 4.249 -4.197 0.147
3688.50 318.18 4.104 -4.297 0.150
3695.00 318.35 3.988 -4.397 0.154
3702.80 318.50 3.915 -4.499 0.079
3710.80 318.59 3.889 -4.599 0.080
3717.90 318.61 3.844 -4.799 0.084
3724.80 318.60 3.768 -4.900 0.000
3731.90 318.65 3.698 -5.100 0.000
3739.20 318.72 3.658 -5.199 -0.091
3746.40 318.74 3.582 -5.399 -0.094
3753.20 318.76 3.494 -5.497 -0.192
3760.00 318.80 3.407 -5.597 -0.195
3766.60 318.87 3.206 -5.792 -0.304
3773.20 318.95 2.976 -5.892 -0.309
3780.90 319.00 2.835 -5.985 -0.419
3788.50 319.06 2.693 -6.085 -0.426
3795.20 319.11 2.528 -6.176 -0.540
3802.30 319.19 2.365 -6.276 -0.549
3809.60 319.29 2.172 -6.376 -0.558
3817.20 319.37 1.920 -6.464 -0.679
3824.70 319.46 1.600 -6.564 -0.690
3831.90 319.55 1.369 -6.663 -0.700
3839.30 319.60 1.325 -6.749 -0.829
3845.90 319.66 1.264 -6.849 -0.841
3852.70 319.71 1.157 -6.849 -0.841
3860.20 319.73 1.067 -6.948 -0.853
3868.10 319.77 0.995 -6.948 -0.853
3875.20 319.81 0.955 -7.031 -0.988
3882.10 319.80 0.900 -7.031 -0.988
3889.80 319.88 0.729 -7.031 -0.988
3897.70 319.97 0.574 -7.031 -0.988
3904.60 320.07 0.514 -6.932 -0.974
3911.80 320.17 0.484 -6.932 -0.974
3919.00 320.19 0.426 -6.833 -0.960
3926.20 320.25 0.367 -6.734 -0.946
3933.40 320.37 0.340 -6.635 -0.932
3940.40 320.43 0.307 -6.437 -0.905
3947.10 320.51 0.281 -6.338 -0.891
3954.20 320.57 0.265 -6.239 -0.877
3961.70 320.60 0.252 -6.140 -0.863
3969.70 320.65 0.259 -6.041 -0.849
3977.20 320.70 0.320 -5.926 -0.939
3983.80 320.72 0.531 -5.827 -0.923
3990.60 320.77 0.889 -5.729 -0.907
3997.90 320.84 1.156 -5.712 -1.007
4005.30 320.91 1.294 -5.712 -1.007
4012.10 321.04 1.149 -5.613 -0.990
4019.10 321.22 0.725 -5.693 -1.107
4026.60 321.41 0.600 -5.693 -1.107
4033.80 321.47 0.713 -5.693 -1.107
4041.30 321.45 0.962 -5.693 -1.107
4048.30 321.51 1.221 -5.673 -1.206
4056.00 321.49 1.518 -5.673 -1.206
4063.90 321.44 1.484 -5.792 -1.126
4072.00 321.53 1.207 -5.792 -1.126
4079.10 321.60 1.251 -5.792 -1.126
4085.80 321.63 1.476 -5.792 -1.126
4093.00 321.60 1.904 -5.792 -1.126
4099.50 321.54 2.400 -5.810 -1.025
4106.30 321.49 2.670 -5.810 -1.025
4112.70 321.50 2.627 -5.810 -1.025
4118.90 321.54 2.597 -5.810 -1.025
4125.40 321.58 2.636 -5.810 -1.025
4132.30 321.61 2.581 -5.810 -1.025
4140.40 321.71 2.162 -5.810 -1.025
4147.60 321.84 1.784 -5.712 -1.007
4154.50 321.91 1.556 -5.693 -1.107
4162.00 321.91 1.553 -5.693 -1.107
4169.20 321.89 1.717 -5.693 -1.107
4176.30 321.86 2.003 -5.693 -1.107
4183.60 321.82 2.878 -5.575 -1.185
4191.10 321.74 3.355 -5.575 -1.185
4198.40 321.75 3.405 -5.478 -1.164
4205.70 321.74 3.465 -5.456 -1.260
4213.20 321.77 3.548 -5.359 -1.237
4220.70 321.80 3.590 -5.359 -1.237
4228.20 321.78 3.638 -5.262 -1.215
4236.00 321.79 3.701 -5.164 -1.192
4243.70 321.82 3.739 -5.067 -1.170
4251.70 321.82 3.711 -4.969 -1.147
4260.30 321.82 3.648 -4.872 -1.125
4268.80 321.85 3.592 -4.774 -1.102
4277.20 321.89 3.588 -4.580 -1.057
4286.00 322.01 3.573 -4.385 -1.012
4294.50 322.17 3.523 -4.287 -0.990
4302.90 322.21 3.506 -4.092 -0.945
4311.10 322.23 3.504 -3.897 -0.900
4319.40 322.22 3.494 -3.703 -0.855
4328.00 322.23 3.482 -3.605 -0.832
4337.10 322.24 3.474 -3.410 -0.787
4346.10 322.26 3.469 -3.313 -0.765
4353.30 322.28 3.457 -3.215 -0.742
4359.90 322.30 3.407 -3.118 -0.720
4367.10 322.34 3.335 -3.021 -0.697
4375.00 322.41 3.239 -3.032 -0.645
4382.90 322.52 3.216 -2.945 -0.572
4391.60 322.64 3.219 -2.954 -0.521
4399.10 322.76 3.200 -3.062 -0.485
4405.80 322.81 3.183 -3.070 -0.431
4412.40 322.83 3.154 -3.176 -0.390
4418.80 322.83 3.116 -3.282 -0.345
4425.70 322.86 3.109 -3.392 -0.237
4432.20 322.91 3.118 -3.495 -0.183
4438.90 322.92 3.110 -3.598 -0.126
4446.00 322.92 3.073 -3.699 -0.065
4452.50 322.97 2.983 -3.799 0.066
4459.60 323.06 2.813 -3.898 0.136
4466.40 323.17 2.556 -3.895 0.204
4473.30 323.25 2.332 -3.990 0.279
4480.60 323.30 2.170 -4.084 0.357
4487.80 323.38 1.996 -4.084 0.357
4494.60 323.49 1.867 -4.177 0.439
4500.60 323.52 1.791 -4.276 0.449
4506.50 323.49 1.761 -4.268 0.524
4513.40 323.49 1.749 -4.367 0.536
4520.80 323.50 1.750 -4.466 0.548
4527.80 323.52 1.764 -4.566 0.561
4535.00 323.53 1.717 -4.774 0.502
4542.10 323.62 1.613 -4.873 0.512
4549.00 323.66 1.481 -4.981 0.436
4555.90 323.67 1.400 -5.081 0.444
4562.80 323.77 1.347 -5.287 0.370
4571.30 323.82 1.258 -5.387 0.377
4580.40 323.87 1.132 -5.492 0.288
4587.90 323.94 1.021 -5.697 0.199
4594.80 324.06 0.932 -5.796 0.202
4601.60 324.21 0.826 -5.899 0.103
4609.00 324.30 0.771 -5.999 0.105
4616.50 324.33 0.766 -6.100 0.000
4623.50 324.33 0.768 -6.200 0.000
4631.10 324.34 0.754 -6.300 0.000
4639.30 324.37 0.707 -6.400 0.000
4647.40 324.39 0.639 -6.500 0.000
4655.10 324.41 0.559 -6.600 0.000
4662.20 324.44 0.514 -6.600 0.000
4669.30 324.52 0.477 -6.700 0.000
4676.90 324.59 0.486 -6.699 0.117
4685.40 324.59 0.557 -6.799 0.119
4693.00 324.62 0.567 -6.799 0.119
4700.60 324.65 0.538 -6.899 0.120
4708.20 324.62 0.539 -6.899 0.120
4715.80 324.59 0.571 -6.899 0.120
4723.40 324.58 0.626 -6.999 0.122
4731.40 324.58 0.706 -6.999 0.122
4739.20 324.58 0.808 -6.999 0.122
4746.70 324.61 0.866 -7.099 0.124
4753.60 324.60 0.912 -7.099 0.124
4760.40 324.59 0.934 -7.199 0.126
4767.90 324.59 0.944 -7.199 0.126
4776.10 324.58 0.959 -7.199 0.126
4783.50 324.57 0.973 -7.299 0.127
4790.20 324.58 1.000 -7.299 0.127
4797.20 324.59 1.041 -7.296 0.255
4804.30 324.58 1.054 -7.296 0.255
4812.10 324.60 0.999 -7.395 0.258
4819.60 324.61 0.954 -7.390 0.387
4827.10 324.64 0.939 -7.390 0.387
4834.20 324.64 0.928 -7.390 0.387
4840.80 324.68 0.938 -7.390 0.387
4848.30 324.69 0.981 -7.390 0.387
4856.00 324.65 1.018 -7.390 0.387
4863.70 324.67 1.024 -7.490 0.393
4871.40 324.70 1.022 -7.495 0.262
4879.30 324.71 1.020 -7.495 0.262
4887.40 324.73 1.040 -7.599 0.133
4896.90 324.74 1.078 -7.600 0.000
4906.00 324.73 1.135 -7.700 0.000
4913.80 324.79 1.170 -7.799 -0.136
4921.60 324.80 1.135 -7.795 -0.272
4929.70 324.84 1.056 -7.895 -0.276
4937.40 324.91 0.986 -7.889 -0.413
4944.60 324.92 0.946 -7.989 -0.419
4952.50 324.93 0.894 -7.989 -0.419
4960.00 324.96 0.845 -8.080 -0.565
4967.60 325.02 0.828 -8.080 -0.565
4975.50 325.09 0.830 -8.080 -0.565
4983.30 325.04 0.840 -8.180 -0.572
4990.60 325.06 0.848 -8.189 -0.429
4998.50 325.15 0.844 -8.189 -0.429
5006.40 325.26 0.845 -8.089 -0.424
5014.50 325.35 0.847 -8.089 -0.424
5022.00 325.44 0.832 -8.095 -0.283
5029.40 325.48 0.812 -8.095 -0.283
5036.70 325.51 0.808 -8.099 -0.141
5044.40 325.57 0.809 -7.999 -0.140
5051.80 325.58 0.804 -8.000 0.000
5059.20 325.58 0.793 -8.000 0.000
5066.80 325.61 0.787 -7.999 0.140
5074.10 325.64 0.783 -7.999 0.140
5082.10 325.62 0.782 -8.099 0.141
5090.30 325.64 0.780 -8.095 0.283
5098.30 325.66 0.779 -8.195 0.286
5105.30 325.68 0.776 -8.195 0.286
5112.60 325.68 0.774 -8.295 0.290
5120.70 325.68 0.767 -8.395 0.293
5128.00 325.73 0.729 -8.499 0.148
5135.50 325.75 0.695 -8.599 0.150
5143.00 325.76 0.696 -8.699 0.152
5151.60 325.85 0.699 -8.799 0.154
5160.60 325.91 0.664 -8.900 0.000
5169.30 325.91 0.606 -8.900 0.000
5177.90 325.92 0.574 -9.000 0.000
5186.30 325.95 0.571 -9.099 -0.159
5193.60 326.02 0.572 -9.099 -0.159
5201.60 326.06 0.565 -9.099 -0.159
5209.90 326.04 0.560 -9.199 -0.161
5218.40 326.01 0.553 -9.199 -0.161
5226.40 326.00 0.529 -9.199 -0.161
5233.50 326.03 0.499 -9.200 0.000
5241.40 326.07 0.479 -9.200 0.000
5248.80 326.08 0.475 -9.200 0.000
5256.20 326.05 0.471 -9.199 0.161
5263.30 326.06 0.470 -9.099 0.159
5269.90 326.03 0.471 -9.094 0.318
5277.30 326.08 0.459 -8.988 0.471
5284.90 326.14 0.418 -8.888 0.466
5292.50 326.13 0.380 -8.779 0.614
5300.00 326.15 0.357 -8.679 0.607
5307.80 326.19 0.336 -8.567 0.750
5315.10 326.30 0.328 -8.468 0.741
5322.60 326.36 0.359 -8.255 0.868
5330.80 326.42 0.418 -8.155 0.857
5339.10 326.53 0.475 -7.956 0.836
5347.80 326.70 0.490 -7.757 0.815
5355.30 326.75 0.450 -7.571 0.662
5361.30 326.71 0.424 -7.372 0.645
5369.00 326.73 0.424 -7.282 0.509
5377.50 326.78 0.452 -7.083 0.495
5386.00 326.82 0.484 -6.891 0.361
5393.70 326.84 0.504 -6.791 0.356
5401.00 326.84 0.520 -6.591 0.345
5408.40 326.86 0.533 -6.491 0.340
5416.00 326.92 0.545 -6.396 0.223
5423.90 327.06 0.574 -6.391 0.335
5431.30 327.02 0.607 -6.291 0.330
5438.20 326.98 0.666 -6.291 0.330
5444.50 327.04 0.778 -6.185 0.432
5451.60 327.14 0.980 -6.185 0.432
5459.50 327.18 1.192 -6.176 0.540
5467.50 327.17 1.326 -6.176 0.540
5475.80 327.15 1.390 -6.176 0.540
5483.10 327.18 1.405 -6.176 0.540
5490.30 327.18 1.393 -6.176 0.540
5498.40 327.17 1.371 -6.176 0.540
5506.80 327.19 1.359 -6.077 0.532
5514.90 327.24 1.363 -6.085 0.426
5522.80 327.19 1.438 -5.985 0.419
5529.90 327.18 1.524 -5.892 0.309
5537.10 327.24 1.551 -5.892 0.309
5544.20 327.22 1.570 -5.796 0.202
5551.40 327.22 1.600 -5.699 0.099
5558.60 327.26 1.609 -5.600 0.000
5566.70 327.30 1.605 -5.400 0.000
5575.10 327.32 1.612 -5.299 -0.092
5584.30 327.38 1.613 -5.197 -0.181
5594.20 327.38 1.590 -5.093 -0.267
5603.90 327.36 1.571 -4.988 -0.349
5613.50 327.43 1.589 -4.881 -0.427
5623.30 327.48 1.604 -4.774 -0.502
5632.50 327.49 1.605 -4.654 -0.654
5641.60 327.53 1.612 -4.629 -0.816
5650.10 327.59 1.616 -4.499 -0.956
5656.90 327.66 1.619 -4.463 -1.113
5664.80 327.66 1.609 -4.422 -1.268
5673.90 327.65 1.601 -4.349 -1.498
5683.60 327.69 1.588 -4.265 -1.723
5694.20 327.73 1.569 -4.169 -1.944
5703.40 327.75 1.568 -4.150 -2.207
5712.00 327.82 1.559 -4.114 -2.472
5720.70 327.92 1.540 -4.109 -2.669
5728.60 327.94 1.514 -4.045 -2.939
5737.10 327.93 1.503 -4.098 -3.201
5747.00 327.93 1.520 -4.119 -3.335
5758.40 327.95 1.540 -4.151 -3.608
5768.40 327.99 1.559 -4.162 -3.747
5778.00 328.05 1.596 -4.242 -3.956
5787.30 328.13 1.643 -4.315 -4.024
5794.60 328.16 1.668 -4.316 -4.168
5801.70 328.20 1.716 -4.388 -4.237
5809.40 328.27 1.787 -4.388 -4.237
5816.90 328.31 1.860 -4.460 -4.307
5824.00 328.40 1.923 -4.460 -4.307
5830.90 328.47 1.946 -4.460 -4.307
5838.20 328.53 1.922 -4.532 -4.376
5845.60 328.62 1.892 -4.532 -4.376
5852.70 328.70 1.867 -4.532 -4.376
5860.10 328.74 1.814 -4.532 -4.376
5867.30 328.69 1.751 -4.604 -4.446
5874.60 328.62 1.722 -4.604 -4.446
5882.10 328.65 1.698 -4.676 -4.515
5889.40 328.70 1.650 -4.748 -4.585
5897.30 328.67 1.602 -4.820 -4.654
5905.90 328.70 1.571 -4.963 -4.793
5915.10 328.77 1.531 -5.107 -4.932
5923.90 328.83 1.450 -5.091 -5.091
5932.20 328.82 1.374 -5.233 -5.233
5940.60 328.87 1.260 -5.445 -5.445
5949.30 328.96 1.118 -5.586 -5.586
5958.10 329.04 1.031 -5.798 -5.798
5967.10 329.14 0.957 -5.835 -6.042
5975.90 329.21 0.871 -6.044 -6.258
5985.30 329.29 0.792 -6.252 -6.474
5996.40 329.49 0.691 -6.460 -6.690
6005.60 329.67 0.624 -6.479 -6.948
6014.00 329.62 0.604 -6.684 -7.167
6022.40 329.70 0.535 -6.758 -7.506
6030.10 329.91 0.447 -6.892 -7.654
6037.70 330.03 0.412 -7.093 -7.877
6045.20 330.12 0.384 -7.085 -8.151
6052.10 330.19 0.328 -7.217 -8.302
6059.20 330.29 0.270 -7.348 -8.453
6067.00 330.33 0.237 -7.328 -8.733
6074.60 330.38 0.199 -7.392 -8.810
6082.10 330.49 0.148 -7.521 -8.963
6089.50 330.54 0.114 -7.585 -9.039
6096.50 330.59 0.090 -7.649 -9.116
6103.70 330.76 0.068 -7.713 -9.193
6111.30 330.96 0.061 -7.778 -9.269
6119.40 331.14 0.065 -7.842 -9.346
6126.70 331.21 0.068 -7.906 -9.422
6133.40 331.22 0.073 -8.070 -9.283
6140.20 331.24 0.084 -8.070 -9.283
6147.10 331.27 0.095 -8.070 -9.283
6154.00 331.25 0.101 -8.230 -9.141
6161.90 331.22 0.104 -8.230 -9.141
6170.10 331.23 0.102 -8.163 -9.066
6177.40 331.25 0.101 -8.320 -8.923
6184.60 331.26 0.106 -8.252 -8.849
6191.80 331.26 0.112 -8.252 -8.849
6199.40 331.28 0.114 -8.184 -8.776
6207.20 331.31 0.104 -8.336 -8.632
6215.50 331.36 0.088 -8.336 -8.632
6223.60 331.39 0.084 -8.266 -8.560
6231.80 331.45 0.081 -8.266 -8.560
6239.30 331.48 0.082 -8.415 -8.415
6246.40 331.49 0.091 -8.415 -8.415
6253.90 331.52 0.104 -8.415 -8.415
6261.10 331.52 0.117 -8.560 -8.266
6268.90 331.55 0.128 -8.560 -8.266
6276.60 331.52 0.131 -8.703 -8.116
6284.40 331.54 0.133 -8.776 -8.184
6292.70 331.52 0.132 -8.918 -8.030
6300.40 331.51 0.127 -8.918 -8.030
6308.00 331.60 0.123 -9.057 -7.873
6316.10 331.78 0.123 -9.057 -7.873
6323.50 331.84 0.129 -9.193 -7.713
6330.80 331.78 0.137 -9.193 -7.713
6338.10 331.81 0.143 -9.403 -7.615
6345.70 331.92 0.148 -9.403 -7.615
6353.20 331.98 0.154 -9.535 -7.450
6361.40 331.92 0.164 -9.535 -7.450
6370.20 331.96 0.179 -9.663 -7.282
6377.90 332.00 0.191 -9.663 -7.282
6385.30 332.01 0.205 -9.743 -7.342
6393.20 331.99 0.223 -9.743 -7.342
6401.00 332.02 0.230 -9.870 -7.171
6408.50 332.05 0.234 -9.870 -7.171
6416.50 332.04 0.240 -9.951 -7.230
6424.80 332.05 0.250 -10.076 -7.055
6433.30 332.04 0.263 -10.076 -7.055
6441.30 332.05 0.268 -10.076 -7.055
6449.00 332.04 0.265 -10.076 -7.055
6456.30 332.02 0.265 -10.280 -6.934
6463.90 332.04 0.266 -10.280 -6.934
6471.70 332.09 0.266 -10.280 -6.934
6479.30 332.04 0.270 -10.280 -6.934
6486.80 332.01 0.276 -10.363 -6.990
6494.70 332.04 0.283 -10.483 -6.808
6502.70 332.05 0.289 -10.567 -6.862
6510.20 332.06 0.293 -10.567 -6.862
6518.10 332.07 0.300 -10.651 -6.917
6526.20 332.09 0.309 -10.735 -6.971
6534.10 332.07 0.316 -10.940 -6.836
6541.80 332.08 0.328 -11.025 -6.889
6550.10 332.09 0.341 -11.109 -6.942
6558.10 332.15 0.359 -11.315 -6.799
6565.40 332.21 0.385 -11.400 -6.850
6572.80 332.26 0.402 -11.605 -6.700
6580.20 332.30 0.396 -11.691 -6.750
6587.40 332.39 0.358 -11.691 -6.750
6595.00 332.46 0.309 -11.895 -6.593
6602.20 332.51 0.282 -11.982 -6.642